
**** 02/08/21 20:25:07 ****** PSpice 17.2.0 (March 2016) ****** ID# 0 ********

 ** Profile: "SCHEMATIC1-4"  [ E:\Courses\AUT\semester 3\Electrical Circuit\lab\project\Orcad\4\4-PSpiceFiles\SCHEMATIC1\4.sim ] 


 ****     CIRCUIT DESCRIPTION


******************************************************************************




** Creating circuit file "4.cir" 
** WARNING: THIS AUTOMATICALLY GENERATED FILE MAY BE OVERWRITTEN BY SUBSEQUENT SIMULATIONS

*Libraries: 
* Profile Libraries :
* Local Libraries :
* From [PSPICE NETLIST] section of C:\Users\BARDIA\AppData\Roaming\SPB_Data\cdssetup\OrCAD_PSpice\17.2.0\PSpice.ini file:
.lib "nom.lib" 

*Analysis directives: 
.TRAN  0 2.5s 0 2ms 
.STEP LIN PARAM c 0.03 0.1 0.01 
.OPTIONS ADVCONV
.PROBE64 V(alias(*)) I(alias(*)) W(alias(*)) D(alias(*)) NOISE(alias(*)) 
.INC "..\SCHEMATIC1.net" 



**** INCLUDING SCHEMATIC1.net ****
* source 4
C_C1         0 N08617  {c}  
R_R3         N08601 N08609  4  
X_F2    N08609 N08631 0 N08617 SCHEMATIC1_F2 
E_E1         N08631 0 N08617 0 0.333
L_L1         0 N08617  0.5  
V_V4         N08601 0  
+SIN 0 6 1.6 0 0 0
L_L2         0 N09457  1.7  
X_F3    N09449 N09477 0 N09457 SCHEMATIC1_F3 
R_R4         N09441 N09449  4  
E_E2         N09477 0 N09457 0 0.333
C_C2         0 N09457  {c}  
V_V5         N09441 0  
+SIN 0 6 1.6 0 0 0
X_F4    N10035 N10063 0 N10043 SCHEMATIC1_F4 
V_V6         N10027 0  
+SIN 0 6 1.6 0 0 0
R_R5         N10027 N10035  4  
E_E3         N10063 0 N10043 0 0.333
L_L3         0 N10043  2.8  
C_C3         0 N10043  {c}  
V_V7         N10630 0  
+SIN 0 6 1.6 0 0 0
C_C4         0 N10646  {c}  
E_E4         N10666 0 N10646 0 0.333
L_L4         0 N10646  4  
X_F5    N10638 N10666 0 N10646 SCHEMATIC1_F5 
R_R6         N10630 N10638  4  
.PARAM  c=1n

.subckt SCHEMATIC1_F2 1 2 3 4  
F_F2         3 4 VF_F2 4
VF_F2         1 2 0V
.ends SCHEMATIC1_F2

.subckt SCHEMATIC1_F3 1 2 3 4  
F_F3         3 4 VF_F3 4
VF_F3         1 2 0V
.ends SCHEMATIC1_F3

.subckt SCHEMATIC1_F4 1 2 3 4  
F_F4         3 4 VF_F4 4
VF_F4         1 2 0V
.ends SCHEMATIC1_F4

.subckt SCHEMATIC1_F5 1 2 3 4  
F_F5         3 4 VF_F5 4
VF_F5         1 2 0V
.ends SCHEMATIC1_F5

**** RESUMING 4.cir ****
.END

**** 02/08/21 20:25:07 ****** PSpice 17.2.0 (March 2016) ****** ID# 0 ********

 ** Profile: "SCHEMATIC1-4"  [ E:\Courses\AUT\semester 3\Electrical Circuit\lab\project\Orcad\4\4-PSpiceFiles\SCHEMATIC1\4.sim ] 


 ****     INITIAL TRANSIENT SOLUTION       TEMPERATURE =   27.000 DEG C

 ****     CURRENT STEP                     PARAM C =     .03  


******************************************************************************



 NODE   VOLTAGE     NODE   VOLTAGE     NODE   VOLTAGE     NODE   VOLTAGE


(N08601)    0.0000 (N08609)    0.0000 (N08617)    0.0000 (N08631)    0.0000     

(N09441)    0.0000 (N09449)    0.0000 (N09457)    0.0000 (N09477)    0.0000     

(N10027)    0.0000 (N10035)    0.0000 (N10043)    0.0000 (N10063)    0.0000     

(N10630)    0.0000 (N10638)    0.0000 (N10646)    0.0000 (N10666)    0.0000 




    VOLTAGE SOURCE CURRENTS
    NAME         CURRENT

    V_V4         0.000E+00
    V_V5         0.000E+00
    V_V6         0.000E+00
    V_V7         0.000E+00
    X_F2.VF_F2   0.000E+00
    X_F3.VF_F3   0.000E+00
    X_F4.VF_F4   0.000E+00
    X_F5.VF_F5   0.000E+00

    TOTAL POWER DISSIPATION   0.00E+00  WATTS


**** 02/08/21 20:25:07 ****** PSpice 17.2.0 (March 2016) ****** ID# 0 ********

 ** Profile: "SCHEMATIC1-4"  [ E:\Courses\AUT\semester 3\Electrical Circuit\lab\project\Orcad\4\4-PSpiceFiles\SCHEMATIC1\4.sim ] 


 ****     INITIAL TRANSIENT SOLUTION       TEMPERATURE =   27.000 DEG C

 ****     CURRENT STEP                     PARAM C =     .04  


******************************************************************************



 NODE   VOLTAGE     NODE   VOLTAGE     NODE   VOLTAGE     NODE   VOLTAGE


(N08601)    0.0000 (N08609)    0.0000 (N08617)    0.0000 (N08631)    0.0000     

(N09441)    0.0000 (N09449)    0.0000 (N09457)    0.0000 (N09477)    0.0000     

(N10027)    0.0000 (N10035)    0.0000 (N10043)    0.0000 (N10063)    0.0000     

(N10630)    0.0000 (N10638)    0.0000 (N10646)    0.0000 (N10666)    0.0000 




    VOLTAGE SOURCE CURRENTS
    NAME         CURRENT

    V_V4         0.000E+00
    V_V5         0.000E+00
    V_V6         0.000E+00
    V_V7         0.000E+00
    X_F2.VF_F2   0.000E+00
    X_F3.VF_F3   0.000E+00
    X_F4.VF_F4   0.000E+00
    X_F5.VF_F5   0.000E+00

    TOTAL POWER DISSIPATION   0.00E+00  WATTS


**** 02/08/21 20:25:07 ****** PSpice 17.2.0 (March 2016) ****** ID# 0 ********

 ** Profile: "SCHEMATIC1-4"  [ E:\Courses\AUT\semester 3\Electrical Circuit\lab\project\Orcad\4\4-PSpiceFiles\SCHEMATIC1\4.sim ] 


 ****     INITIAL TRANSIENT SOLUTION       TEMPERATURE =   27.000 DEG C

 ****     CURRENT STEP                     PARAM C =     .05  


******************************************************************************



 NODE   VOLTAGE     NODE   VOLTAGE     NODE   VOLTAGE     NODE   VOLTAGE


(N08601)    0.0000 (N08609)    0.0000 (N08617)    0.0000 (N08631)    0.0000     

(N09441)    0.0000 (N09449)    0.0000 (N09457)    0.0000 (N09477)    0.0000     

(N10027)    0.0000 (N10035)    0.0000 (N10043)    0.0000 (N10063)    0.0000     

(N10630)    0.0000 (N10638)    0.0000 (N10646)    0.0000 (N10666)    0.0000 




    VOLTAGE SOURCE CURRENTS
    NAME         CURRENT

    V_V4         0.000E+00
    V_V5         0.000E+00
    V_V6         0.000E+00
    V_V7         0.000E+00
    X_F2.VF_F2   0.000E+00
    X_F3.VF_F3   0.000E+00
    X_F4.VF_F4   0.000E+00
    X_F5.VF_F5   0.000E+00

    TOTAL POWER DISSIPATION   0.00E+00  WATTS


**** 02/08/21 20:25:07 ****** PSpice 17.2.0 (March 2016) ****** ID# 0 ********

 ** Profile: "SCHEMATIC1-4"  [ E:\Courses\AUT\semester 3\Electrical Circuit\lab\project\Orcad\4\4-PSpiceFiles\SCHEMATIC1\4.sim ] 


 ****     INITIAL TRANSIENT SOLUTION       TEMPERATURE =   27.000 DEG C

 ****     CURRENT STEP                     PARAM C =     .06  


******************************************************************************



 NODE   VOLTAGE     NODE   VOLTAGE     NODE   VOLTAGE     NODE   VOLTAGE


(N08601)    0.0000 (N08609)    0.0000 (N08617)    0.0000 (N08631)    0.0000     

(N09441)    0.0000 (N09449)    0.0000 (N09457)    0.0000 (N09477)    0.0000     

(N10027)    0.0000 (N10035)    0.0000 (N10043)    0.0000 (N10063)    0.0000     

(N10630)    0.0000 (N10638)    0.0000 (N10646)    0.0000 (N10666)    0.0000 




    VOLTAGE SOURCE CURRENTS
    NAME         CURRENT

    V_V4         0.000E+00
    V_V5         0.000E+00
    V_V6         0.000E+00
    V_V7         0.000E+00
    X_F2.VF_F2   0.000E+00
    X_F3.VF_F3   0.000E+00
    X_F4.VF_F4   0.000E+00
    X_F5.VF_F5   0.000E+00

    TOTAL POWER DISSIPATION   0.00E+00  WATTS


**** 02/08/21 20:25:07 ****** PSpice 17.2.0 (March 2016) ****** ID# 0 ********

 ** Profile: "SCHEMATIC1-4"  [ E:\Courses\AUT\semester 3\Electrical Circuit\lab\project\Orcad\4\4-PSpiceFiles\SCHEMATIC1\4.sim ] 


 ****     INITIAL TRANSIENT SOLUTION       TEMPERATURE =   27.000 DEG C

 ****     CURRENT STEP                     PARAM C =     .07  


******************************************************************************



 NODE   VOLTAGE     NODE   VOLTAGE     NODE   VOLTAGE     NODE   VOLTAGE


(N08601)    0.0000 (N08609)    0.0000 (N08617)    0.0000 (N08631)    0.0000     

(N09441)    0.0000 (N09449)    0.0000 (N09457)    0.0000 (N09477)    0.0000     

(N10027)    0.0000 (N10035)    0.0000 (N10043)    0.0000 (N10063)    0.0000     

(N10630)    0.0000 (N10638)    0.0000 (N10646)    0.0000 (N10666)    0.0000 




    VOLTAGE SOURCE CURRENTS
    NAME         CURRENT

    V_V4         0.000E+00
    V_V5         0.000E+00
    V_V6         0.000E+00
    V_V7         0.000E+00
    X_F2.VF_F2   0.000E+00
    X_F3.VF_F3   0.000E+00
    X_F4.VF_F4   0.000E+00
    X_F5.VF_F5   0.000E+00

    TOTAL POWER DISSIPATION   0.00E+00  WATTS


**** 02/08/21 20:25:07 ****** PSpice 17.2.0 (March 2016) ****** ID# 0 ********

 ** Profile: "SCHEMATIC1-4"  [ E:\Courses\AUT\semester 3\Electrical Circuit\lab\project\Orcad\4\4-PSpiceFiles\SCHEMATIC1\4.sim ] 


 ****     INITIAL TRANSIENT SOLUTION       TEMPERATURE =   27.000 DEG C

 ****     CURRENT STEP                     PARAM C =     .08  


******************************************************************************



 NODE   VOLTAGE     NODE   VOLTAGE     NODE   VOLTAGE     NODE   VOLTAGE


(N08601)    0.0000 (N08609)    0.0000 (N08617)    0.0000 (N08631)    0.0000     

(N09441)    0.0000 (N09449)    0.0000 (N09457)    0.0000 (N09477)    0.0000     

(N10027)    0.0000 (N10035)    0.0000 (N10043)    0.0000 (N10063)    0.0000     

(N10630)    0.0000 (N10638)    0.0000 (N10646)    0.0000 (N10666)    0.0000 




    VOLTAGE SOURCE CURRENTS
    NAME         CURRENT

    V_V4         0.000E+00
    V_V5         0.000E+00
    V_V6         0.000E+00
    V_V7         0.000E+00
    X_F2.VF_F2   0.000E+00
    X_F3.VF_F3   0.000E+00
    X_F4.VF_F4   0.000E+00
    X_F5.VF_F5   0.000E+00

    TOTAL POWER DISSIPATION   0.00E+00  WATTS


**** 02/08/21 20:25:07 ****** PSpice 17.2.0 (March 2016) ****** ID# 0 ********

 ** Profile: "SCHEMATIC1-4"  [ E:\Courses\AUT\semester 3\Electrical Circuit\lab\project\Orcad\4\4-PSpiceFiles\SCHEMATIC1\4.sim ] 


 ****     INITIAL TRANSIENT SOLUTION       TEMPERATURE =   27.000 DEG C

 ****     CURRENT STEP                     PARAM C =     .09  


******************************************************************************



 NODE   VOLTAGE     NODE   VOLTAGE     NODE   VOLTAGE     NODE   VOLTAGE


(N08601)    0.0000 (N08609)    0.0000 (N08617)    0.0000 (N08631)    0.0000     

(N09441)    0.0000 (N09449)    0.0000 (N09457)    0.0000 (N09477)    0.0000     

(N10027)    0.0000 (N10035)    0.0000 (N10043)    0.0000 (N10063)    0.0000     

(N10630)    0.0000 (N10638)    0.0000 (N10646)    0.0000 (N10666)    0.0000 




    VOLTAGE SOURCE CURRENTS
    NAME         CURRENT

    V_V4         0.000E+00
    V_V5         0.000E+00
    V_V6         0.000E+00
    V_V7         0.000E+00
    X_F2.VF_F2   0.000E+00
    X_F3.VF_F3   0.000E+00
    X_F4.VF_F4   0.000E+00
    X_F5.VF_F5   0.000E+00

    TOTAL POWER DISSIPATION   0.00E+00  WATTS


**** 02/08/21 20:25:07 ****** PSpice 17.2.0 (March 2016) ****** ID# 0 ********

 ** Profile: "SCHEMATIC1-4"  [ E:\Courses\AUT\semester 3\Electrical Circuit\lab\project\Orcad\4\4-PSpiceFiles\SCHEMATIC1\4.sim ] 


 ****     INITIAL TRANSIENT SOLUTION       TEMPERATURE =   27.000 DEG C

 ****     CURRENT STEP                     PARAM C =     .1   


******************************************************************************



 NODE   VOLTAGE     NODE   VOLTAGE     NODE   VOLTAGE     NODE   VOLTAGE


(N08601)    0.0000 (N08609)    0.0000 (N08617)    0.0000 (N08631)    0.0000     

(N09441)    0.0000 (N09449)    0.0000 (N09457)    0.0000 (N09477)    0.0000     

(N10027)    0.0000 (N10035)    0.0000 (N10043)    0.0000 (N10063)    0.0000     

(N10630)    0.0000 (N10638)    0.0000 (N10646)    0.0000 (N10666)    0.0000 




    VOLTAGE SOURCE CURRENTS
    NAME         CURRENT

    V_V4         0.000E+00
    V_V5         0.000E+00
    V_V6         0.000E+00
    V_V7         0.000E+00
    X_F2.VF_F2   0.000E+00
    X_F3.VF_F3   0.000E+00
    X_F4.VF_F4   0.000E+00
    X_F5.VF_F5   0.000E+00

    TOTAL POWER DISSIPATION   0.00E+00  WATTS



          JOB CONCLUDED

**** 02/08/21 20:25:07 ****** PSpice 17.2.0 (March 2016) ****** ID# 0 ********

 ** Profile: "SCHEMATIC1-4"  [ E:\Courses\AUT\semester 3\Electrical Circuit\lab\project\Orcad\4\4-PSpiceFiles\SCHEMATIC1\4.sim ] 


 ****     JOB STATISTICS SUMMARY

 ****     CURRENT STEP                     PARAM C =     .1   


******************************************************************************



  Total job time (using Solver 1)   =         .75
