
**** 02/08/21 20:34:56 ****** PSpice 17.2.0 (March 2016) ****** ID# 0 ********

 ** Profile: "SCHEMATIC1-6"  [ E:\Courses\AUT\semester 3\Electrical Circuit\lab\project\Orcad\6\6-PSpiceFiles\SCHEMATIC1\6.sim ] 


 ****     CIRCUIT DESCRIPTION


******************************************************************************




** Creating circuit file "6.cir" 
** WARNING: THIS AUTOMATICALLY GENERATED FILE MAY BE OVERWRITTEN BY SUBSEQUENT SIMULATIONS

*Libraries: 
* Profile Libraries :
* Local Libraries :
* From [PSPICE NETLIST] section of C:\Users\BARDIA\AppData\Roaming\SPB_Data\cdssetup\OrCAD_PSpice\17.2.0\PSpice.ini file:
.lib "nom.lib" 

*Analysis directives: 
.AC DEC 1 1.6 1.6
.OPTIONS ADVCONV
.PROBE64 V(alias(*)) I(alias(*)) W(alias(*)) D(alias(*)) NOISE(alias(*)) 
.INC "..\SCHEMATIC1.net" 



**** INCLUDING SCHEMATIC1.net ****
* source 6
X_F2    N09053 N09075 0 N09061 SCHEMATIC1_F2 
L_L1         0 N09061  1H  
C_C1         0 N09061  0.05  
E_E1         N09075 0 N09061 0 0.333
R_R3         0 N09053  4  
V_V2         N09061 0 DC 0Vdc AC 1Vac 

.subckt SCHEMATIC1_F2 1 2 3 4  
F_F2         3 4 VF_F2 4
VF_F2         1 2 0V
.ends SCHEMATIC1_F2

**** RESUMING 6.cir ****
.END

ERROR(ORPSIM-15143): Voltage source and/or inductor loop involving V_V2. You may break the loop by adding a series resistance
